*
* Curvas do diodo entre dreno e source com graal
*

* Circuit description

.include inversor_1_1.spi

*V2 10 30 0V
*               VIL    VIH
V2 10 30 pulse (0.71 0.94 1ns 1ps 1ps 1ns 2ns)
*  a vdd vss y 
X1 10 20 30  40 inversor_1_1
X2 40 20 30  41 inversor_1_1
X3 41 20 30  42 inversor_1_1
v1 20 30 1.8V
v3 30 0 0V

* Auxiliar voltage source
* VAUX 10 20 DC 0

.model tp pmos level = 54
.model tn nmos level = 54
* Analysis

*.dc v2 0 1.8 0.001
.tran 0.0001 3ns
.end
