* Spice description of nand2
* Spice driver version -134874429
* Date ( dd/mm/yyyy hh:mm:ss ): 22/11/2006 at 10:28:17

* INTERF in in2 out vdd vss 


.subckt nand2 3 2 5 1 6 
* NET 1 = vdd
* NET 2 = in2
* NET 3 = in
* NET 5 = out
* NET 6 = vss

*****
.model tp pmos level=54
.model tn nmos level=54
*****

Mtr_00004 5 2 1 1 tp L=1U W=6U AS=6P AD=6P PS=10U PD=10U 
Mtr_00003 5 3 1 1 tp L=1U W=6U AS=6P AD=6P PS=10U PD=10U 
Mtr_00002 5 2 4 6 tn L=1U W=2U AS=6P AD=6P PS=10U PD=10U 
Mtr_00001 6 3 4 6 tn L=1U W=2U AS=6P AD=6P PS=10U PD=10U 
C6 1 6 1.335e-14
C5 2 6 1.133e-14
C4 3 6 1.273e-14
C2 5 6 2.255e-14
C1 6 6 1.335e-14
.ends nand2

