*
* Curvas do diodo entre dreno e source com graal
*

* Circuit description

.include nand2.spi

*V2 10 30 0V
*  a  b  y  vdd vss 
X1 10 20 40 50 30 nand2
X2 40 40 41 50 30 nand2

*v1 20 30 1.8V

v3 30 0 0V
v4 50 30 1.8v

* Auxiliar voltage source
* VAUX 10 20 DC 0

.model tp pmos level = 54
.model tn nmos level = 54
* Analysis


*.dc v2 0 1.8 0.001

v1 10 30 pulse(0 1.8 0ns 1ps 1ps 0.4ns 0.8ns)
v2 20 30 pulse(0 1.8 0ns 1ps 1ps 0.8ns 1.6ns)
.tran 0.00001 2ns
.end
